<?xml version="1.0" encoding="UTF-8"?>

<!-- generated on 2024-11-13 09:59:57 by Eclipse SUMO netedit Version 1.14.1
<configuration xmlns:xsi="http://www.w3.org/2001/XMLSchema-instance" xsi:noNamespaceSchemaLocation="http://sumo.dlr.de/xsd/netconvertConfiguration.xsd">

    <input>
        <sumo-net-file value="/Users/Documents/GitHub/DRL-attacker/networks/plymouth/plymouth.net.xml"/>
    </input>

    <output>
        <output-file value="/Users/Documents/GitHub/DRL-attacker/networks/plymouth/plymouth.net.xml"/>
    </output>

    <processing>
        <geometry.min-radius.fix.railways value="false"/>
        <geometry.max-grade.fix value="false"/>
        <offset.disable-normalization value="true"/>
        <lefthand value="false"/>
    </processing>

    <junctions>
        <no-turnarounds value="true"/>
        <junctions.corner-detail value="5"/>
        <junctions.limit-turn-speed value="5.5"/>
        <rectangular-lane-cut value="true"/>
    </junctions>

    <pedestrian>
        <walkingareas value="false"/>
    </pedestrian>

</configuration>
-->

<net version="1.9" junctionCornerDetail="5" rectangularLaneCut="true" limitTurnSpeed="5.50" xmlns:xsi="http://www.w3.org/2001/XMLSchema-instance" xsi:noNamespaceSchemaLocation="http://sumo.dlr.de/xsd/net_file.xsd">

    <location netOffset="477.32,404.93" convBoundary="0.00,0.00,1035.55,810.69" origBoundary="0.00,0.00,0.00,0.00" projParameter="!"/>

    <type id="bidirectional" priority="1" speed="1.39" disallow="pedestrian tram rail_urban rail rail_electric rail_fast ship" width="3.65"/>
    <type id="border" priority="0" speed="1.39" disallow="all" discard="0" width="0.10"/>
    <type id="driving" priority="1" speed="13.89" disallow="pedestrian tram rail_urban rail rail_electric rail_fast ship" width="3.65"/>
    <type id="entry" priority="1" speed="22.22" disallow="pedestrian tram rail_urban rail rail_electric rail_fast ship" width="3.65"/>
    <type id="exit" priority="1" speed="22.22" disallow="pedestrian tram rail_urban rail rail_electric rail_fast ship" width="3.65"/>
    <type id="median" priority="0" speed="1.39" disallow="all" discard="0" width="0.10"/>
    <type id="mwyEntry" priority="1" speed="22.22" allow="private emergency authority army vip passenger hov taxi bus coach delivery truck trailer motorcycle evehicle custom1 custom2" width="3.65"/>
    <type id="mwyExit" priority="1" speed="22.22" allow="private emergency authority army vip passenger hov taxi bus coach delivery truck trailer motorcycle evehicle custom1 custom2" width="3.65"/>
    <type id="none" priority="0" speed="1.39" disallow="all" discard="0" width="1.00"/>
    <type id="offRamp" priority="1" speed="22.22" allow="private emergency authority army vip passenger hov taxi bus coach delivery truck trailer motorcycle evehicle custom1 custom2" width="3.65"/>
    <type id="onRamp" priority="1" speed="22.22" allow="private emergency authority army vip passenger hov taxi bus coach delivery truck trailer motorcycle evehicle custom1 custom2" width="3.65"/>
    <type id="parking" priority="1" speed="1.39" disallow="pedestrian tram rail_urban rail rail_electric rail_fast ship" width="2.50"/>
    <type id="rail" priority="3" speed="33.33" allow="rail_urban rail rail_electric rail_fast" width="3.65"/>
    <type id="restricted" priority="0" speed="13.89" disallow="all" width="3.65"/>
    <type id="roadWorks" priority="0" speed="1.39" allow="authority" width="3.65"/>
    <type id="shoulder" priority="0" speed="1.39" disallow="all" discard="0" width="1.00"/>
    <type id="special1" priority="1" speed="22.22" allow="custom1" discard="0" width="3.65"/>
    <type id="special2" priority="1" speed="22.22" allow="custom2" discard="0" width="3.65"/>
    <type id="special3" priority="1" speed="22.22" allow="custom1 custom2" discard="0" width="3.65"/>
    <type id="stop" priority="1" speed="13.89" disallow="pedestrian tram rail_urban rail rail_electric rail_fast ship" width="3.65"/>
    <type id="tram" priority="2" speed="13.89" allow="tram" width="3.65"/>

    <edge id=":140_0" function="internal">
        <lane id=":140_0_0" index="0" disallow="pedestrian tram rail_urban rail rail_electric rail_fast ship" speed="17.88" length="24.19" width="3.50" shape="525.40,572.66 522.80,566.93 520.07,562.66 517.20,558.02 514.20,551.18"/>
        <lane id=":140_0_1" index="1" disallow="pedestrian tram rail_urban rail rail_electric rail_fast ship" speed="17.88" length="24.19" width="3.50" shape="528.69,571.48 526.10,565.75 523.36,561.48 520.49,556.84 517.50,550.00"/>
        <lane id=":140_0_2" index="2" disallow="pedestrian tram rail_urban rail rail_electric rail_fast ship" speed="17.88" length="24.19" width="3.50" shape="528.69,571.48 520.79,548.82"/>
    </edge>
    <edge id=":140_3" function="internal">
        <lane id=":140_3_0" index="0" disallow="pedestrian tram rail_urban rail rail_electric rail_fast ship" speed="17.88" length="24.10" width="3.50" shape="527.38,546.46 529.98,552.19 532.72,556.46 535.59,561.10 538.58,567.95"/>
        <lane id=":140_3_1" index="1" disallow="pedestrian tram rail_urban rail rail_electric rail_fast ship" speed="17.88" length="24.10" width="3.50" shape="527.38,546.46 535.28,569.12"/>
        <lane id=":140_3_2" index="2" disallow="pedestrian tram rail_urban rail rail_electric rail_fast ship" speed="17.88" length="24.10" width="3.50" shape="524.09,547.64 531.99,570.30"/>
    </edge>
    <edge id=":145_0" function="internal">
        <lane id=":145_0_0" index="0" disallow="pedestrian tram rail_urban rail rail_electric rail_fast ship" speed="17.88" length="24.10" width="3.50" shape="232.37,332.96 226.31,331.29 221.26,330.69 215.84,329.96 208.66,327.87"/>
        <lane id=":145_0_1" index="1" disallow="pedestrian tram rail_urban rail rail_electric rail_fast ship" speed="17.88" length="24.10" width="3.50" shape="232.37,332.96 209.88,324.59"/>
        <lane id=":145_0_2" index="2" disallow="pedestrian tram rail_urban rail rail_electric rail_fast ship" speed="17.88" length="24.10" width="3.50" shape="233.59,329.68 211.10,321.31"/>
    </edge>
    <edge id=":145_3" function="internal">
        <lane id=":145_3_0" index="0" disallow="pedestrian tram rail_urban rail rail_electric rail_fast ship" speed="17.88" length="24.10" width="3.50" shape="213.54,314.75 219.60,316.42 224.65,317.02 230.07,317.75 237.25,319.84"/>
        <lane id=":145_3_1" index="1" disallow="pedestrian tram rail_urban rail rail_electric rail_fast ship" speed="17.88" length="24.10" width="3.50" shape="213.54,314.75 236.03,323.12"/>
        <lane id=":145_3_2" index="2" disallow="pedestrian tram rail_urban rail rail_electric rail_fast ship" speed="17.88" length="24.10" width="3.50" shape="212.32,318.03 234.81,326.40"/>
    </edge>
    <edge id=":150_0" function="internal">
        <lane id=":150_0_0" index="0" disallow="pedestrian tram rail_urban rail rail_electric rail_fast ship" speed="17.88" length="17.32" width="3.50" shape="17.49,256.66 1.26,250.59"/>
        <lane id=":150_0_1" index="1" disallow="pedestrian tram rail_urban rail rail_electric rail_fast ship" speed="17.88" length="17.32" width="3.50" shape="18.71,253.38 2.49,247.32"/>
        <lane id=":150_0_2" index="2" disallow="pedestrian tram rail_urban rail rail_electric rail_fast ship" speed="17.88" length="17.32" width="3.50" shape="19.93,250.10 3.72,244.04"/>
    </edge>
    <edge id=":150_3" function="internal">
        <lane id=":150_3_0" index="0" disallow="pedestrian tram rail_urban rail rail_electric rail_fast ship" speed="17.88" length="17.30" width="3.50" shape="6.17,237.48 22.37,243.54"/>
        <lane id=":150_3_1" index="1" disallow="pedestrian tram rail_urban rail rail_electric rail_fast ship" speed="17.88" length="17.30" width="3.50" shape="4.95,240.76 21.15,246.82"/>
    </edge>
    <edge id=":156_0" function="internal">
        <lane id=":156_0_0" index="0" disallow="pedestrian tram rail_urban rail rail_electric rail_fast ship" speed="17.88" length="19.19" width="3.50" shape="546.84,260.65 546.19,266.98 544.92,271.86 543.66,275.87 543.06,279.59"/>
        <lane id=":156_0_1" index="1" disallow="pedestrian tram rail_urban rail rail_electric rail_fast ship" speed="17.88" length="19.19" width="3.50" shape="543.34,260.59 543.06,279.59"/>
    </edge>
    <edge id=":156_2" function="internal">
        <lane id=":156_2_0" index="0" disallow="pedestrian tram rail_urban rail rail_electric rail_fast ship" speed="17.88" length="19.01" width="3.50" shape="539.56,279.53 539.84,260.53"/>
    </edge>
    <edge id=":159_0" function="internal">
        <lane id=":159_0_0" index="0" disallow="pedestrian tram rail_urban rail rail_electric rail_fast ship" speed="17.88" length="19.13" width="3.50" shape="838.53,558.25 833.00,556.82 829.01,556.64 825.01,556.47 819.49,555.04"/>
        <lane id=":159_0_1" index="1" disallow="pedestrian tram rail_urban rail rail_electric rail_fast ship" speed="17.88" length="19.13" width="3.50" shape="838.53,558.25 820.68,551.75"/>
        <lane id=":159_0_2" index="2" disallow="pedestrian tram rail_urban rail rail_electric rail_fast ship" speed="17.88" length="19.13" width="3.50" shape="839.73,554.96 821.88,548.46"/>
    </edge>
    <edge id=":159_3" function="internal">
        <lane id=":159_3_0" index="0" disallow="pedestrian tram rail_urban rail rail_electric rail_fast ship" speed="17.88" length="19.51" width="3.50" shape="826.67,535.31 831.78,538.33 834.45,541.86 837.09,545.38 842.13,548.39"/>
        <lane id=":159_3_1" index="1" disallow="pedestrian tram rail_urban rail rail_electric rail_fast ship" speed="17.88" length="19.51" width="3.50" shape="825.47,538.60 830.63,541.06 833.80,543.49 836.98,545.93 842.13,548.39"/>
        <lane id=":159_3_2" index="2" disallow="pedestrian tram rail_urban rail rail_electric rail_fast ship" speed="17.88" length="19.51" width="3.50" shape="824.28,541.89 842.13,548.39"/>
        <lane id=":159_3_3" index="3" disallow="pedestrian tram rail_urban rail rail_electric rail_fast ship" speed="17.88" length="19.51" width="3.50" shape="823.08,545.18 840.93,551.68"/>
    </edge>
    <edge id=":164_0" function="internal">
        <lane id=":164_0_0" index="0" disallow="pedestrian tram rail_urban rail rail_electric rail_fast ship" speed="17.88" length="19.62" width="3.50" shape="858.37,572.93 853.27,569.91 850.60,566.38 847.95,562.85 842.91,559.85"/>
        <lane id=":164_0_1" index="1" disallow="pedestrian tram rail_urban rail rail_electric rail_fast ship" speed="17.88" length="19.62" width="3.50" shape="859.57,569.64 854.42,567.18 851.24,564.75 848.07,562.31 842.91,559.85"/>
        <lane id=":164_0_2" index="2" disallow="pedestrian tram rail_urban rail rail_electric rail_fast ship" speed="17.88" length="19.62" width="3.50" shape="860.77,566.35 855.61,563.89 852.44,561.46 849.27,559.03 844.11,556.56"/>
        <lane id=":164_0_3" index="3" disallow="pedestrian tram rail_urban rail rail_electric rail_fast ship" speed="17.88" length="19.62" width="3.50" shape="861.97,563.06 844.11,556.56"/>
    </edge>
    <edge id=":164_4" function="internal">
        <lane id=":164_4_0" index="0" disallow="pedestrian tram rail_urban rail rail_electric rail_fast ship" speed="17.88" length="19.00" width="3.50" shape="846.51,549.99 864.37,556.49"/>
        <lane id=":164_4_1" index="1" disallow="pedestrian tram rail_urban rail rail_electric rail_fast ship" speed="17.88" length="19.00" width="3.50" shape="845.31,553.28 863.17,559.78"/>
    </edge>
    <edge id=":169_0" function="internal">
        <lane id=":169_0_0" index="0" disallow="pedestrian tram rail_urban rail rail_electric rail_fast ship" speed="17.88" length="24.45" width="3.50" shape="941.14,595.69 934.94,594.57 929.57,595.16 923.76,595.60 916.23,594.02"/>
        <lane id=":169_0_1" index="1" disallow="pedestrian tram rail_urban rail rail_electric rail_fast ship" speed="17.88" length="24.45" width="3.50" shape="941.14,595.69 935.08,594.04 930.04,593.47 924.62,592.77 917.43,590.73"/>
        <lane id=":169_0_2" index="2" disallow="pedestrian tram rail_urban rail rail_electric rail_fast ship" speed="17.88" length="24.45" width="3.50" shape="942.35,592.40 936.29,590.75 931.24,590.18 925.82,589.48 918.63,587.44"/>
        <lane id=":169_0_3" index="3" disallow="pedestrian tram rail_urban rail rail_electric rail_fast ship" speed="17.88" length="24.45" width="3.50" shape="942.35,592.40 919.83,584.15"/>
    </edge>
    <edge id=":169_4" function="internal">
        <lane id=":169_4_0" index="0" disallow="pedestrian tram rail_urban rail rail_electric rail_fast ship" speed="17.88" length="24.01" width="3.50" shape="922.23,577.58 944.78,585.83"/>
        <lane id=":169_4_1" index="1" disallow="pedestrian tram rail_urban rail rail_electric rail_fast ship" speed="17.88" length="24.01" width="3.50" shape="921.03,580.87 943.57,589.12"/>
    </edge>
    <edge id=":21_0" function="internal">
        <lane id=":21_0_0" index="0" disallow="pedestrian tram rail_urban rail rail_electric rail_fast ship" speed="17.88" length="19.20" width="3.50" shape="543.66,237.75 544.16,241.47 545.31,245.53 546.45,250.45 546.90,256.81"/>
        <lane id=":21_0_1" index="1" disallow="pedestrian tram rail_urban rail rail_electric rail_fast ship" speed="17.88" length="19.20" width="3.50" shape="543.66,237.75 543.40,256.75"/>
    </edge>
    <edge id=":21_2" function="internal">
        <lane id=":21_2_0" index="0" disallow="pedestrian tram rail_urban rail rail_electric rail_fast ship" speed="17.88" length="19.00" width="3.50" shape="539.90,256.69 540.16,237.69"/>
    </edge>
    <edge id=":24_0" function="internal">
        <lane id=":24_0_0" index="0" disallow="pedestrian tram rail_urban rail rail_electric rail_fast ship" speed="17.88" length="24.76" width="3.50" shape="542.03,351.10 543.13,355.26 545.56,360.49 547.85,367.16 548.52,375.63"/>
        <lane id=":24_0_1" index="1" disallow="pedestrian tram rail_urban rail rail_electric rail_fast ship" speed="17.88" length="24.76" width="3.50" shape="542.03,351.10 542.58,355.28 543.80,360.54 544.89,367.15 545.03,375.40"/>
        <lane id=":24_0_2" index="2" disallow="pedestrian tram rail_urban rail rail_electric rail_fast ship" speed="17.88" length="24.76" width="3.50" shape="542.03,351.10 541.54,375.17"/>
    </edge>
    <edge id=":24_3" function="internal">
        <lane id=":24_3_0" index="0" disallow="pedestrian tram rail_urban rail rail_electric rail_fast ship" speed="17.88" length="24.02" width="3.50" shape="534.55,374.71 535.44,367.51 536.76,361.01 537.97,355.45 538.53,351.04"/>
    </edge>
    <edge id=":27_0" function="internal">
        <lane id=":27_0_0" index="0" disallow="pedestrian tram rail_urban rail rail_electric rail_fast ship" speed="17.88" length="24.02" width="3.50" shape="482.33,425.94 459.83,417.49"/>
        <lane id=":27_0_1" index="1" disallow="pedestrian tram rail_urban rail rail_electric rail_fast ship" speed="17.88" length="24.02" width="3.50" shape="483.55,422.66 461.07,414.22"/>
    </edge>
    <edge id=":27_2" function="internal">
        <lane id=":27_2_0" index="0" disallow="pedestrian tram rail_urban rail rail_electric rail_fast ship" speed="17.88" length="24.05" width="3.50" shape="464.79,404.40 471.66,406.41 476.60,406.99 481.55,407.56 488.43,409.54"/>
        <lane id=":27_2_1" index="1" disallow="pedestrian tram rail_urban rail rail_electric rail_fast ship" speed="17.88" length="24.05" width="3.50" shape="464.79,404.40 487.21,412.82"/>
        <lane id=":27_2_2" index="2" disallow="pedestrian tram rail_urban rail rail_electric rail_fast ship" speed="17.88" length="24.05" width="3.50" shape="463.55,407.67 485.99,416.10"/>
        <lane id=":27_2_3" index="3" disallow="pedestrian tram rail_urban rail rail_electric rail_fast ship" speed="17.88" length="24.05" width="3.50" shape="462.31,410.94 484.77,419.38"/>
    </edge>
    <edge id=":33_0" function="internal">
        <lane id=":33_0_0" index="0" disallow="pedestrian tram rail_urban rail rail_electric rail_fast ship" speed="17.88" length="24.00" width="3.50" shape="746.13,528.02 723.64,519.63"/>
        <lane id=":33_0_1" index="1" disallow="pedestrian tram rail_urban rail rail_electric rail_fast ship" speed="17.88" length="24.00" width="3.50" shape="747.36,524.74 724.87,516.35"/>
        <lane id=":33_0_2" index="2" disallow="pedestrian tram rail_urban rail rail_electric rail_fast ship" speed="17.88" length="24.00" width="3.50" shape="748.58,521.46 726.09,513.07"/>
    </edge>
    <edge id=":33_3" function="internal">
        <lane id=":33_3_0" index="0" disallow="pedestrian tram rail_urban rail rail_electric rail_fast ship" speed="17.88" length="24.00" width="3.50" shape="729.76,503.23 752.25,511.62"/>
        <lane id=":33_3_1" index="1" disallow="pedestrian tram rail_urban rail rail_electric rail_fast ship" speed="17.88" length="24.00" width="3.50" shape="728.53,506.51 751.02,514.90"/>
        <lane id=":33_3_2" index="2" disallow="pedestrian tram rail_urban rail rail_electric rail_fast ship" speed="17.88" length="24.00" width="3.50" shape="727.31,509.79 749.80,518.18"/>
    </edge>
    <edge id=":40_0" function="internal">
        <lane id=":40_0_0" index="0" disallow="pedestrian tram rail_urban rail rail_electric rail_fast ship" speed="17.88" length="23.80" width="3.50" shape="543.10,763.26 541.18,786.86"/>
        <lane id=":40_0_1" index="1" disallow="pedestrian tram rail_urban rail rail_electric rail_fast ship" speed="17.88" length="23.80" width="3.50" shape="539.62,762.90 537.69,786.62"/>
        <lane id=":40_0_2" index="2" disallow="pedestrian tram rail_urban rail rail_electric rail_fast ship" speed="17.88" length="23.80" width="3.50" shape="536.14,762.53 534.20,786.39"/>
    </edge>
    <edge id=":40_3" function="internal">
        <lane id=":40_3_0" index="0" disallow="pedestrian tram rail_urban rail rail_electric rail_fast ship" speed="17.88" length="24.13" width="3.50" shape="527.21,785.92 529.18,761.81"/>
        <lane id=":40_3_1" index="1" disallow="pedestrian tram rail_urban rail rail_electric rail_fast ship" speed="17.88" length="24.13" width="3.50" shape="530.70,786.15 532.66,762.17"/>
    </edge>
    <edge id=":46_0" function="internal">
        <lane id=":46_0_0" index="0" disallow="pedestrian tram rail_urban rail rail_electric rail_fast ship" speed="17.88" length="24.04" width="3.50" shape="393.00,392.59 370.41,384.31"/>
        <lane id=":46_0_1" index="1" disallow="pedestrian tram rail_urban rail rail_electric rail_fast ship" speed="17.88" length="24.04" width="3.50" shape="394.19,389.30 371.64,381.03"/>
    </edge>
    <edge id=":46_2" function="internal">
        <lane id=":46_2_0" index="0" disallow="pedestrian tram rail_urban rail rail_electric rail_fast ship" speed="17.88" length="23.93" width="3.50" shape="375.32,371.20 397.75,379.42"/>
        <lane id=":46_2_1" index="1" disallow="pedestrian tram rail_urban rail rail_electric rail_fast ship" speed="17.88" length="23.93" width="3.50" shape="374.09,374.47 396.56,382.71"/>
        <lane id=":46_2_2" index="2" disallow="pedestrian tram rail_urban rail rail_electric rail_fast ship" speed="17.88" length="23.93" width="3.50" shape="372.86,377.75 395.37,386.00"/>
    </edge>
    <edge id=":52_0" function="internal">
        <lane id=":52_0_0" index="0" disallow="pedestrian tram rail_urban rail rail_electric rail_fast ship" speed="17.88" length="24.00" width="3.50" shape="638.83,488.00 616.34,479.62"/>
        <lane id=":52_0_1" index="1" disallow="pedestrian tram rail_urban rail rail_electric rail_fast ship" speed="17.88" length="24.00" width="3.50" shape="640.06,484.72 617.56,476.34"/>
        <lane id=":52_0_2" index="2" disallow="pedestrian tram rail_urban rail rail_electric rail_fast ship" speed="17.88" length="24.00" width="3.50" shape="641.28,481.44 618.79,473.06"/>
    </edge>
    <edge id=":52_3" function="internal">
        <lane id=":52_3_0" index="0" disallow="pedestrian tram rail_urban rail rail_electric rail_fast ship" speed="17.88" length="24.00" width="3.50" shape="622.46,463.22 644.95,471.60"/>
        <lane id=":52_3_1" index="1" disallow="pedestrian tram rail_urban rail rail_electric rail_fast ship" speed="17.88" length="24.00" width="3.50" shape="621.24,466.50 643.72,474.88"/>
        <lane id=":52_3_2" index="2" disallow="pedestrian tram rail_urban rail rail_electric rail_fast ship" speed="17.88" length="24.00" width="3.50" shape="620.01,469.78 642.50,478.16"/>
    </edge>
    <edge id=":59_0" function="internal">
        <lane id=":59_0_0" index="0" disallow="pedestrian tram rail_urban rail rail_electric rail_fast ship" speed="17.88" length="24.04" width="3.50" shape="792.83,545.33 770.24,537.01"/>
        <lane id=":59_0_1" index="1" disallow="pedestrian tram rail_urban rail rail_electric rail_fast ship" speed="17.88" length="24.04" width="3.50" shape="794.02,542.04 771.47,533.73"/>
        <lane id=":59_0_2" index="2" disallow="pedestrian tram rail_urban rail rail_electric rail_fast ship" speed="17.88" length="24.04" width="3.50" shape="795.22,538.75 772.69,530.45"/>
    </edge>
    <edge id=":59_3" function="internal">
        <lane id=":59_3_0" index="0" disallow="pedestrian tram rail_urban rail rail_electric rail_fast ship" speed="17.88" length="24.04" width="3.50" shape="776.36,520.61 783.23,522.59 788.17,523.14 793.12,523.67 800.01,525.60"/>
        <lane id=":59_3_1" index="1" disallow="pedestrian tram rail_urban rail rail_electric rail_fast ship" speed="17.88" length="24.04" width="3.50" shape="776.36,520.61 798.81,528.89"/>
        <lane id=":59_3_2" index="2" disallow="pedestrian tram rail_urban rail rail_electric rail_fast ship" speed="17.88" length="24.04" width="3.50" shape="775.13,523.89 797.62,532.18"/>
        <lane id=":59_3_3" index="3" disallow="pedestrian tram rail_urban rail rail_electric rail_fast ship" speed="17.88" length="24.04" width="3.50" shape="773.91,527.17 796.42,535.47"/>
    </edge>
    <edge id=":66_0" function="internal">
        <lane id=":66_0_0" index="0" disallow="pedestrian tram rail_urban rail rail_electric rail_fast ship" speed="17.88" length="24.17" width="3.50" shape="585.06,467.95 578.16,465.96 573.20,465.40 568.25,464.84 561.35,462.85"/>
        <lane id=":66_0_1" index="1" disallow="pedestrian tram rail_urban rail rail_electric rail_fast ship" speed="17.88" length="24.17" width="3.50" shape="586.28,464.67 579.38,462.68 574.43,462.12 569.47,461.56 562.57,459.57"/>
        <lane id=":66_0_2" index="2" disallow="pedestrian tram rail_urban rail rail_electric rail_fast ship" speed="17.88" length="24.17" width="3.50" shape="586.28,464.67 563.79,456.29"/>
        <lane id=":66_0_3" index="3" disallow="pedestrian tram rail_urban rail rail_electric rail_fast ship" speed="17.88" length="24.17" width="3.50" shape="587.51,461.39 565.02,453.01"/>
    </edge>
    <edge id=":66_4" function="internal">
        <lane id=":66_4_0" index="0" disallow="pedestrian tram rail_urban rail rail_electric rail_fast ship" speed="17.88" length="24.00" width="3.50" shape="568.69,443.17 591.18,451.55"/>
        <lane id=":66_4_1" index="1" disallow="pedestrian tram rail_urban rail rail_electric rail_fast ship" speed="17.88" length="24.00" width="3.50" shape="567.47,446.45 589.96,454.83"/>
        <lane id=":66_4_2" index="2" disallow="pedestrian tram rail_urban rail rail_electric rail_fast ship" speed="17.88" length="24.00" width="3.50" shape="566.24,449.73 588.73,458.11"/>
    </edge>
    <edge id=":73_0" function="internal">
        <lane id=":73_0_0" index="0" disallow="pedestrian tram rail_urban rail rail_electric rail_fast ship" speed="17.88" length="26.10" width="3.50" shape="513.81,550.09 510.65,542.83 507.83,538.10 505.27,533.30 502.88,525.81"/>
        <lane id=":73_0_1" index="1" disallow="pedestrian tram rail_urban rail rail_electric rail_fast ship" speed="17.88" length="26.10" width="3.50" shape="517.11,548.91 513.98,541.75 511.19,537.10 508.65,532.37 506.28,524.99"/>
        <lane id=":73_0_2" index="2" disallow="pedestrian tram rail_urban rail rail_electric rail_fast ship" speed="17.88" length="26.10" width="3.50" shape="517.11,548.91 514.54,541.68 512.90,536.69 511.51,531.62 509.69,524.17"/>
        <lane id=":73_0_3" index="3" disallow="pedestrian tram rail_urban rail rail_electric rail_fast ship" speed="17.88" length="26.10" width="3.50" shape="520.40,547.73 517.87,540.61 516.26,535.69 514.89,530.69 513.09,523.35"/>
    </edge>
    <edge id=":73_4" function="internal">
        <lane id=":73_4_0" index="0" disallow="pedestrian tram rail_urban rail rail_electric rail_fast ship" speed="17.88" length="24.91" width="3.50" shape="519.89,521.71 521.52,528.18 523.06,533.66 524.79,539.07 526.99,545.37"/>
        <lane id=":73_4_1" index="1" disallow="pedestrian tram rail_urban rail rail_electric rail_fast ship" speed="17.88" length="24.91" width="3.50" shape="516.49,522.53 518.13,529.06 519.71,534.66 521.48,540.19 523.70,546.55"/>
    </edge>
    <edge id=":79_0" function="internal">
        <lane id=":79_0_0" index="0" disallow="pedestrian tram rail_urban rail rail_electric rail_fast ship" speed="7.92" length="15.03" width="3.50" shape="533.77,452.56 528.90,451.24 525.17,451.33 522.58,452.84 521.13,455.76"/>
    </edge>
    <edge id=":79_1" function="internal">
        <lane id=":79_1_0" index="0" disallow="pedestrian tram rail_urban rail rail_electric rail_fast ship" speed="17.88" length="35.83" width="3.50" shape="534.99,449.28 524.21,444.68 516.13,440.39 509.45,436.62 502.83,433.57"/>
        <lane id=":79_1_1" index="1" disallow="pedestrian tram rail_urban rail rail_electric rail_fast ship" speed="17.88" length="35.83" width="3.50" shape="536.21,446.00 525.43,441.40 517.36,437.11 510.67,433.34 504.05,430.29"/>
    </edge>
    <edge id=":79_3" function="internal">
        <lane id=":79_3_0" index="0" disallow="pedestrian tram rail_urban rail rail_electric rail_fast ship" speed="11.84" length="31.69" width="3.50" shape="537.44,442.72 530.99,438.84 527.43,433.09 526.75,425.47 528.96,415.97"/>
    </edge>
    <edge id=":79_4" function="internal">
        <lane id=":79_4_0" index="0" disallow="pedestrian tram rail_urban rail rail_electric rail_fast ship" speed="8.33" length="15.13" width="3.50" shape="538.87,419.44 537.55,424.46 537.48,428.38 538.67,431.18 541.11,432.88"/>
    </edge>
    <edge id=":79_5" function="internal">
        <lane id=":79_5_0" index="0" disallow="pedestrian tram rail_urban rail rail_electric rail_fast ship" speed="17.88" length="40.66" width="3.50" shape="538.87,419.44 534.34,429.72 529.03,439.27 524.20,447.98 521.13,455.76"/>
        <lane id=":79_5_1" index="1" disallow="pedestrian tram rail_urban rail rail_electric rail_fast ship" speed="17.88" length="40.66" width="3.50" shape="535.57,418.28 531.02,428.62 525.68,438.28 520.82,447.10 517.73,454.94"/>
    </edge>
    <edge id=":79_7" function="internal">
        <lane id=":79_7_0" index="0" disallow="pedestrian tram rail_urban rail rail_electric rail_fast ship" speed="12.35" length="35.67" width="3.50" shape="532.26,417.13 527.75,425.80 521.55,430.89 513.65,432.39 504.05,430.29"/>
    </edge>
    <edge id=":79_8" function="internal">
        <lane id=":79_8_0" index="0" disallow="pedestrian tram rail_urban rail rail_electric rail_fast ship" speed="9.10" length="18.83" width="3.50" shape="508.93,417.17 515.25,418.99 520.15,419.20 523.61,417.81 525.65,414.82"/>
    </edge>
    <edge id=":79_9" function="internal">
        <lane id=":79_9_0" index="0" disallow="pedestrian tram rail_urban rail rail_electric rail_fast ship" speed="17.88" length="35.85" width="3.50" shape="508.93,417.17 519.06,421.52 526.04,425.40 532.51,429.09 541.11,432.88"/>
        <lane id=":79_9_1" index="1" disallow="pedestrian tram rail_urban rail rail_electric rail_fast ship" speed="17.88" length="35.85" width="3.50" shape="507.71,420.45 517.84,424.80 524.82,428.68 531.29,432.37 539.89,436.16"/>
        <lane id=":79_9_2" index="2" disallow="pedestrian tram rail_urban rail rail_electric rail_fast ship" speed="17.88" length="35.85" width="3.50" shape="506.49,423.73 516.62,428.08 523.60,431.96 530.07,435.65 538.66,439.44"/>
    </edge>
    <edge id=":79_12" function="internal">
        <lane id=":79_12_0" index="0" disallow="pedestrian tram rail_urban rail rail_electric rail_fast ship" speed="12.72" length="33.99" width="3.50" shape="505.27,427.01 512.66,431.22 517.20,437.28 518.89,445.18 517.73,454.94"/>
    </edge>
    <edge id=":79_13" function="internal">
        <lane id=":79_13_0" index="0" disallow="pedestrian tram rail_urban rail rail_electric rail_fast ship" speed="9.68" length="19.22" width="3.50" shape="504.12,451.64 505.51,444.46 505.75,439.06 504.86,435.43 502.83,433.57"/>
    </edge>
    <edge id=":79_14" function="internal">
        <lane id=":79_14_0" index="0" disallow="pedestrian tram rail_urban rail rail_electric rail_fast ship" speed="17.88" length="42.29" width="3.50" shape="507.53,452.47 511.88,439.71 517.12,429.89 522.09,421.95 525.65,414.82"/>
        <lane id=":79_14_1" index="1" disallow="pedestrian tram rail_urban rail rail_electric rail_fast ship" speed="17.88" length="42.29" width="3.50" shape="507.53,452.47 512.40,439.89 518.77,430.47 524.88,422.92 528.96,415.97"/>
    </edge>
    <edge id=":79_16" function="internal">
        <lane id=":79_16_0" index="0" disallow="pedestrian tram rail_urban rail rail_electric rail_fast ship" speed="12.68" length="40.51" width="3.50" shape="510.93,453.29 514.85,442.03 520.49,435.46 528.59,433.53 539.89,436.16"/>
        <lane id=":79_16_1" index="1" disallow="pedestrian tram rail_urban rail rail_electric rail_fast ship" speed="11.69" length="34.21" width="3.50" shape="514.33,454.12 517.62,444.57 522.34,438.96 529.14,437.25 538.66,439.44"/>
    </edge>

    <edge id="-0.0.00" from="0.begin" to="21" priority="1" type="driving" shape="545.25,0.00 544.91,24.91 544.91,25.04 542.06,227.17 542.06,227.31 541.91,237.72">