<!-- the interval and numbers for each flow should be adjusted to a proper value -->


<routes>
    <interval begin="0" end="3600">
        <!-- demand 300 veh/hr/lane-->
        <flow id="10" from="19.0.00" probability="0.34111" departLane="random"/>
        <flow id="11" from="6.0.00" probability="0.30889" departLane="random"/>
        <flow id="12" from="1.0.00" probability="0.11" departLane="random"/>
        <flow id="13" from="-0.0.00" probability="0.10" departLane="random"/>
    </interval>
</routes>
