<routes>
        <vType id="vehicle.lincoln.mkz_2017" length="4.904701232910156" width="2.0606582164764404" height="1.478397011756897" vClass="passenger" accel = "3" decel = "4.5" sigma="0.5" minGap="2" speedFactor="normc(1,0.1,0.2,2)" color = "255,0,0"></vType>
        <vType id="vehicle.chevrolet.impala" length="5.369193077087402" width="2.052736520767212" height="1.4150995016098022" minGap="2.00" speedFactor="normc(1,0.1,0.2,2)" vClass="passenger" color="255,225,0" accel="3" decel="4.5" sigma="0.5"></vType>
        <route edges="6.0.00 10.0.00 14.0.00 13.0.00 2.0.00 15.0.00 7.0.00 3.0.00 -16.0.00 -8.0.00 -12.0.00 -1.0.00" id="E2N"/>
        <route edges="6.0.00 10.0.00 14.0.00 13.0.00 2.0.00 15.0.00 7.0.00 3.0.00 17.0.00 20.0.00 5.0.00 0.0.00" id="E2S"/>
        <route edges="6.0.00 10.0.00 14.0.00 13.0.00 2.0.00 15.0.00 7.0.00 3.0.00 11.0.00 18.0.00 4.0.00 -9.0.00 -19.0.00" id="E2W"/>
        <route edges="1.0.00 12.0.00 8.0.00 16.0.00 -3.0.00 -7.0.00 -15.0.00 -2.0.00 -13.0.00 -14.0.00 -10.0.00 -6.0.00" id="N2E"/>
        <route edges="1.0.00 12.0.00 8.0.00 16.0.00 17.0.00 20.0.00 5.0.00 0.0.00" id="N2S"/>
        <route edges="1.0.00 12.0.00 8.0.00 16.0.00 11.0.00 18.0.00 4.0.00 -9.0.00 -19.0.00" id="N2W"/>
        <route edges="-0.0.00 -5.0.00 -20.0.00 -17.0.00 -3.0.00 -7.0.00 -15.0.00 -2.0.00 -13.0.00 -14.0.00 -10.0.00 -6.0.00" id="S2E"/>
        <route edges="-0.0.00 -5.0.00 -20.0.00 -17.0.00 -16.0.00 -8.0.00 -12.0.00 -1.0.00" id="S2N"/>
        <route edges="-0.0.00 -5.0.00 -20.0.00 -17.0.00 11.0.00 18.0.00 4.0.00 -9.0.00 -19.0.00" id="S2W"/>
        <route edges="19.0.00 9.0.00 -4.0.00 -18.0.00 -11.0.00 -3.0.00 -7.0.00 -15.0.00 -2.0.00 -13.0.00 -14.0.00 -10.0.00 -6.0.00" id="W2E"/>
        <route edges="19.0.00 9.0.00 -4.0.00 -18.0.00 -11.0.00 -16.0.00 -8.0.00 -12.0.00 -1.0.00" id="W2N"/>
        <route edges="19.0.00 9.0.00 -4.0.00 -18.0.00 -11.0.00 17.0.00 20.0.00 5.0.00 0.0.00" id="W2S"/>
<vehicle id="hv.0" type="vehicle.chevrolet.impala" route="W2E" depart="0" departLane="random" departSpeed="desired" departPos="0" arrivalPos="max"/>
<vehicle id="hv.1" type="vehicle.chevrolet.impala" route="E2N" depart="3" departLane="random" departSpeed="desired" departPos="0" arrivalPos="max"/>
<vehicle id="hv.2" type="vehicle.chevrolet.impala" route="W2E" depart="4" departLane="random" departSpeed="desired" departPos="0" arrivalPos="max"/>
<vehicle id="hv.3" type="vehicle.chevrolet.impala" route="E2W" depart="4" departLane="random" departSpeed="desired" departPos="0" arrivalPos="max"/>
<vehicle id="hv.4" type="vehicle.chevrolet.impala" route="N2E" depart="4" departLane="random" departSpeed="desired" departPos="0" arrivalPos="max"/>
<vehicle id="hv.5" type="vehicle.chevrolet.impala" route="E2W" depart="5" departLane="random" departSpeed="desired" departPos="0" arrivalPos="max"/>
<vehicle id="hv.6" type="vehicle.chevrolet.impala" route="W2E" depart="6" departLane="random" departSpeed="desired" departPos="0" arrivalPos="max"/>
<vehicle id="hv.7" type="vehicle.chevrolet.impala" route="W2E" depart="7" departLane="random" departSpeed="desired" departPos="0" arrivalPos="max"/>
<vehicle id="hv.8" type="vehicle.chevrolet.impala" route="W2E" depart="9" departLane="random" departSpeed="desired" departPos="0" arrivalPos="max"/>
<vehicle id="hv.9" type="vehicle.chevrolet.impala" route="W2S" depart="9" departLane="random" departSpeed="desired" departPos="0" arrivalPos="max"/>
<vehicle id="hv.10" type="vehicle.chevrolet.impala" route="N2E" depart="9" departLane="random" departSpeed="desired" departPos="0" arrivalPos="max"/>
<vehicle id="hv.11" type="vehicle.chevrolet.impala" route="S2E" depart="10" departLane="random" departSpeed="desired" departPos="0" arrivalPos="max"/>
<vehicle id="hv.12" type="vehicle.chevrolet.impala" route="E2W" depart="11" departLane="random" departSpeed="desired" departPos="0" arrivalPos="max"/>
<vehicle id="hv.13" type="vehicle.chevrolet.impala" route="E2N" depart="11" departLane="random" departSpeed="desired" departPos="0" arrivalPos="max"/>
<vehicle id="cav.14" type="vehicle.lincoln.mkz_2017" route="W2E" depart="13" departLane="random" departSpeed="desired" departPos="0" arrivalPos="max"/>
<vehicle id="hv.15" type="vehicle.chevrolet.impala" route="E2N" depart="13" departLane="random" departSpeed="desired" departPos="0" arrivalPos="max"/>
<vehicle id="hv.16" type="vehicle.chevrolet.impala" route="S2E" depart="14" departLane="random" departSpeed="desired" departPos="0" arrivalPos="max"/>
<vehicle id="hv.17" type="vehicle.chevrolet.impala" route="E2W" depart="14" departLane="random" departSpeed="desired" departPos="0" arrivalPos="max"/>
<vehicle id="hv.18" type="vehicle.chevrolet.impala" route="S2E" depart="15" departLane="random" departSpeed="desired" departPos="0" arrivalPos="max"/>
<vehicle id="hv.19" type="vehicle.chevrolet.impala" route="N2E" depart="15" departLane="random" departSpeed="desired" departPos="0" arrivalPos="max"/>
<vehicle id="hv.20" type="vehicle.chevrolet.impala" route="W2E" depart="17" departLane="random" departSpeed="desired" departPos="0" arrivalPos="max"/>
<vehicle id="hv.21" type="vehicle.chevrolet.impala" route="S2E" depart="18" departLane="random" departSpeed="desired" departPos="0" arrivalPos="max"/>
<vehicle id="hv.22" type="vehicle.chevrolet.impala" route="E2W" depart="19" departLane="random" departSpeed="desired" departPos="0" arrivalPos="max"/>
<vehicle id="hv.23" type="vehicle.chevrolet.impala" route="N2E" depart="19" departLane="random" departSpeed="desired" departPos="0" arrivalPos="max"/>
<vehicle id="cav.24" type="vehicle.lincoln.mkz_2017" route="S2W" depart="20" departLane="random" departSpeed="desired" departPos="0" arrivalPos="max"/>
<vehicle id="hv.25" type="vehicle.chevrolet.impala" route="E2S" depart="20" departLane="random" departSpeed="desired" departPos="0" arrivalPos="max"/>
<vehicle id="hv.26" type="vehicle.chevrolet.impala" route="N2E" depart="20" departLane="random" departSpeed="desired" departPos="0" arrivalPos="max"/>
<vehicle id="hv.27" type="vehicle.chevrolet.impala" route="W2E" depart="21" departLane="random" departSpeed="desired" departPos="0" arrivalPos="max"/>
<vehicle id="hv.28" type="vehicle.chevrolet.impala" route="S2E" depart="22" departLane="random" departSpeed="desired" departPos="0" arrivalPos="max"/>
<vehicle id="hv.29" type="vehicle.chevrolet.impala" route="W2E" depart="24" departLane="random" departSpeed="desired" departPos="0" arrivalPos="max"/>
<vehicle id="hv.30" type="vehicle.chevrolet.impala" route="N2E" depart="24" departLane="random" departSpeed="desired" departPos="0" arrivalPos="max"/>
<vehicle id="hv.31" type="vehicle.chevrolet.impala" route="W2E" depart="25" departLane="random" departSpeed="desired" departPos="0" arrivalPos="max"/>
<vehicle id="hv.32" type="vehicle.chevrolet.impala" route="E2W" depart="26" departLane="random" departSpeed="desired" departPos="0" arrivalPos="max"/>
<vehicle id="hv.33" type="vehicle.chevrolet.impala" route="S2E" depart="27" departLane="random" departSpeed="desired" departPos="0" arrivalPos="max"/>
<vehicle id="hv.34" type="vehicle.chevrolet.impala" route="E2N" depart="27" departLane="random" departSpeed="desired" departPos="0" arrivalPos="max"/>
<vehicle id="hv.35" type="vehicle.chevrolet.impala" route="N2E" depart="27" departLane="random" departSpeed="desired" departPos="0" arrivalPos="max"/>
<vehicle id="hv.36" type="vehicle.chevrolet.impala" route="E2W" depart="28" departLane="random" departSpeed="desired" departPos="0" arrivalPos="max"/>
<vehicle id="hv.37" type="vehicle.chevrolet.impala" route="E2W" depart="29" departLane="random" departSpeed="desired" departPos="0" arrivalPos="max"/>
<vehicle id="hv.38" type="vehicle.chevrolet.impala" route="E2W" depart="30" departLane="random" departSpeed="desired" departPos="0" arrivalPos="max"/>
<vehicle id="hv.39" type="vehicle.chevrolet.impala" route="W2E" depart="31" departLane="random" departSpeed="desired" departPos="0" arrivalPos="max"/>
<vehicle id="hv.40" type="vehicle.chevrolet.impala" route="W2N" depart="31" departLane="random" departSpeed="desired" departPos="0" arrivalPos="max"/>
<vehicle id="hv.41" type="vehicle.chevrolet.impala" route="S2W" depart="32" departLane="random" departSpeed="desired" departPos="0" arrivalPos="max"/>
<vehicle id="hv.42" type="vehicle.chevrolet.impala" route="N2E" depart="32" departLane="random" departSpeed="desired" departPos="0" arrivalPos="max"/>
<vehicle id="hv.43" type="vehicle.chevrolet.impala" route="W2E" depart="34" departLane="random" departSpeed="desired" departPos="0" arrivalPos="max"/>
<vehicle id="hv.44" type="vehicle.chevrolet.impala" route="S2N" depart="34" departLane="random" departSpeed="desired" departPos="0" arrivalPos="max"/>
<vehicle id="hv.45" type="vehicle.chevrolet.impala" route="S2E" depart="35" departLane="random" departSpeed="desired" departPos="0" arrivalPos="max"/>
<vehicle id="cav.46" type="vehicle.lincoln.mkz_2017" route="W2E" depart="36" departLane="random" departSpeed="desired" departPos="0" arrivalPos="max"/>
<vehicle id="hv.47" type="vehicle.chevrolet.impala" route="W2E" depart="37" departLane="random" departSpeed="desired" departPos="0" arrivalPos="max"/>
<vehicle id="hv.48" type="vehicle.chevrolet.impala" route="N2E" depart="37" departLane="random" departSpeed="desired" departPos="0" arrivalPos="max"/>
<vehicle id="cav.49" type="vehicle.lincoln.mkz_2017" route="E2N" depart="38" departLane="random" departSpeed="desired" departPos="0" arrivalPos="max"/>
<vehicle id="hv.50" type="vehicle.chevrolet.impala" route="N2E" depart="38" departLane="random" departSpeed="desired" departPos="0" arrivalPos="max"/>
<vehicle id="hv.51" type="vehicle.chevrolet.impala" route="W2E" depart="39" departLane="random" departSpeed="desired" departPos="0" arrivalPos="max"/>
<vehicle id="hv.52" type="vehicle.chevrolet.impala" route="S2E" depart="39" departLane="random" departSpeed="desired" departPos="0" arrivalPos="max"/>
<vehicle id="hv.53" type="vehicle.chevrolet.impala" route="E2W" depart="41" departLane="random" departSpeed="desired" departPos="0" arrivalPos="max"/>
<vehicle id="hv.54" type="vehicle.chevrolet.impala" route="N2E" depart="41" departLane="random" departSpeed="desired" departPos="0" arrivalPos="max"/>
<vehicle id="hv.55" type="vehicle.chevrolet.impala" route="E2W" depart="45" departLane="random" departSpeed="desired" departPos="0" arrivalPos="max"/>
<vehicle id="hv.56" type="vehicle.chevrolet.impala" route="S2E" depart="46" departLane="random" departSpeed="desired" departPos="0" arrivalPos="max"/>
<vehicle id="hv.57" type="vehicle.chevrolet.impala" route="W2E" depart="51" departLane="random" departSpeed="desired" departPos="0" arrivalPos="max"/>
<vehicle id="hv.58" type="vehicle.chevrolet.impala" route="W2E" depart="54" departLane="random" departSpeed="desired" departPos="0" arrivalPos="max"/>
<vehicle id="hv.59" type="vehicle.chevrolet.impala" route="N2E" depart="54" departLane="random" departSpeed="desired" departPos="0" arrivalPos="max"/>
<vehicle id="hv.60" type="vehicle.chevrolet.impala" route="W2E" depart="56" departLane="random" departSpeed="desired" departPos="0" arrivalPos="max"/>
<vehicle id="hv.61" type="vehicle.chevrolet.impala" route="W2E" depart="57" departLane="random" departSpeed="desired" departPos="0" arrivalPos="max"/>
<vehicle id="hv.62" type="vehicle.chevrolet.impala" route="W2N" depart="57" departLane="random" departSpeed="desired" departPos="0" arrivalPos="max"/>
<vehicle id="hv.63" type="vehicle.chevrolet.impala" route="N2W" depart="59" departLane="random" departSpeed="desired" departPos="0" arrivalPos="max"/>
<vehicle id="hv.64" type="vehicle.chevrolet.impala" route="E2W" depart="61" departLane="random" departSpeed="desired" departPos="0" arrivalPos="max"/>
<vehicle id="cav.65" type="vehicle.lincoln.mkz_2017" route="N2E" depart="62" departLane="random" departSpeed="desired" departPos="0" arrivalPos="max"/>
<vehicle id="hv.66" type="vehicle.chevrolet.impala" route="S2W" depart="63" departLane="random" departSpeed="desired" departPos="0" arrivalPos="max"/>
<vehicle id="hv.67" type="vehicle.chevrolet.impala" route="N2E" depart="67" departLane="random" departSpeed="desired" departPos="0" arrivalPos="max"/>
<vehicle id="hv.68" type="vehicle.chevrolet.impala" route="E2W" depart="68" departLane="random" departSpeed="desired" departPos="0" arrivalPos="max"/>
<vehicle id="hv.69" type="vehicle.chevrolet.impala" route="S2E" depart="70" departLane="random" departSpeed="desired" departPos="0" arrivalPos="max"/>
<vehicle id="hv.70" type="vehicle.chevrolet.impala" route="W2E" depart="73" departLane="random" departSpeed="desired" departPos="0" arrivalPos="max"/>
<vehicle id="hv.71" type="vehicle.chevrolet.impala" route="E2W" depart="75" departLane="random" departSpeed="desired" departPos="0" arrivalPos="max"/>
<vehicle id="hv.72" type="vehicle.chevrolet.impala" route="E2N" depart="76" departLane="random" departSpeed="desired" departPos="0" arrivalPos="max"/>
<vehicle id="hv.73" type="vehicle.chevrolet.impala" route="W2E" depart="77" departLane="random" departSpeed="desired" departPos="0" arrivalPos="max"/>
<vehicle id="hv.74" type="vehicle.chevrolet.impala" route="E2N" depart="80" departLane="random" departSpeed="desired" departPos="0" arrivalPos="max"/>
<vehicle id="hv.75" type="vehicle.chevrolet.impala" route="N2S" depart="81" departLane="random" departSpeed="desired" departPos="0" arrivalPos="max"/>
<vehicle id="hv.76" type="vehicle.chevrolet.impala" route="N2E" depart="81" departLane="random" departSpeed="desired" departPos="0" arrivalPos="max"/>
<vehicle id="hv.77" type="vehicle.chevrolet.impala" route="S2W" depart="83" departLane="random" departSpeed="desired" departPos="0" arrivalPos="max"/>
<vehicle id="hv.78" type="vehicle.chevrolet.impala" route="W2E" depart="85" departLane="random" departSpeed="desired" departPos="0" arrivalPos="max"/>
<vehicle id="hv.79" type="vehicle.chevrolet.impala" route="S2E" depart="85" departLane="random" departSpeed="desired" departPos="0" arrivalPos="max"/>
<vehicle id="hv.80" type="vehicle.chevrolet.impala" route="S2N" depart="86" departLane="random" departSpeed="desired" departPos="0" arrivalPos="max"/>
<vehicle id="hv.81" type="vehicle.chevrolet.impala" route="W2E" depart="87" departLane="random" departSpeed="desired" departPos="0" arrivalPos="max"/>
<vehicle id="cav.82" type="vehicle.lincoln.mkz_2017" route="W2E" depart="89" departLane="random" departSpeed="desired" departPos="0" arrivalPos="max"/>
<vehicle id="hv.83" type="vehicle.chevrolet.impala" route="W2N" depart="89" departLane="random" departSpeed="desired" departPos="0" arrivalPos="max"/>
<vehicle id="hv.84" type="vehicle.chevrolet.impala" route="N2E" depart="89" departLane="random" departSpeed="desired" departPos="0" arrivalPos="max"/>
<vehicle id="hv.85" type="vehicle.chevrolet.impala" route="E2N" depart="91" departLane="random" departSpeed="desired" departPos="0" arrivalPos="max"/>
<vehicle id="hv.86" type="vehicle.chevrolet.impala" route="W2E" depart="92" departLane="random" departSpeed="desired" departPos="0" arrivalPos="max"/>
<vehicle id="hv.87" type="vehicle.chevrolet.impala" route="W2N" depart="92" departLane="random" departSpeed="desired" departPos="0" arrivalPos="max"/>
<vehicle id="hv.88" type="vehicle.chevrolet.impala" route="E2N" depart="93" departLane="random" departSpeed="desired" departPos="0" arrivalPos="max"/>
<vehicle id="hv.89" type="vehicle.chevrolet.impala" route="S2E" depart="95" departLane="random" departSpeed="desired" departPos="0" arrivalPos="max"/>
<vehicle id="hv.90" type="vehicle.chevrolet.impala" route="W2E" depart="96" departLane="random" departSpeed="desired" departPos="0" arrivalPos="max"/>
<vehicle id="hv.91" type="vehicle.chevrolet.impala" route="E2W" depart="96" departLane="random" departSpeed="desired" departPos="0" arrivalPos="max"/>
<vehicle id="hv.92" type="vehicle.chevrolet.impala" route="E2W" depart="98" departLane="random" departSpeed="desired" departPos="0" arrivalPos="max"/>
<vehicle id="hv.93" type="vehicle.chevrolet.impala" route="E2W" depart="100" departLane="random" departSpeed="desired" departPos="0" arrivalPos="max"/>
<vehicle id="hv.94" type="vehicle.chevrolet.impala" route="E2W" depart="102" departLane="random" departSpeed="desired" departPos="0" arrivalPos="max"/>
<vehicle id="hv.95" type="vehicle.chevrolet.impala" route="N2E" depart="102" departLane="random" departSpeed="desired" departPos="0" arrivalPos="max"/>
<vehicle id="hv.96" type="vehicle.chevrolet.impala" route="N2E" depart="103" departLane="random" departSpeed="desired" departPos="0" arrivalPos="max"/>
<vehicle id="hv.97" type="vehicle.chevrolet.impala" route="W2E" depart="105" departLane="random" departSpeed="desired" departPos="0" arrivalPos="max"/>
<vehicle id="hv.98" type="vehicle.chevrolet.impala" route="W2E" depart="106" departLane="random" departSpeed="desired" departPos="0" arrivalPos="max"/>
<vehicle id="hv.99" type="vehicle.chevrolet.impala" route="S2E" depart="106" departLane="random" departSpeed="desired" departPos="0" arrivalPos="max"/>
<vehicle id="hv.100" type="vehicle.chevrolet.impala" route="N2E" depart="106" departLane="random" departSpeed="desired" departPos="0" arrivalPos="max"/>
<vehicle id="hv.101" type="vehicle.chevrolet.impala" route="W2E" depart="107" departLane="random" departSpeed="desired" departPos="0" arrivalPos="max"/>
<vehicle id="hv.102" type="vehicle.chevrolet.impala" route="E2W" depart="107" departLane="random" departSpeed="desired" departPos="0" arrivalPos="max"/>
<vehicle id="hv.103" type="vehicle.chevrolet.impala" route="E2N" depart="107" departLane="random" departSpeed="desired" departPos="0" arrivalPos="max"/>
<vehicle id="hv.104" type="vehicle.chevrolet.impala" route="E2W" depart="108" departLane="random" departSpeed="desired" departPos="0" arrivalPos="max"/>
<vehicle id="hv.105" type="vehicle.chevrolet.impala" route="W2N" depart="109" departLane="random" departSpeed="desired" departPos="0" arrivalPos="max"/>
<vehicle id="hv.106" type="vehicle.chevrolet.impala" route="S2E" depart="109" departLane="random" departSpeed="desired" departPos="0" arrivalPos="max"/>
<vehicle id="hv.107" type="vehicle.chevrolet.impala" route="W2E" depart="110" departLane="random" departSpeed="desired" departPos="0" arrivalPos="max"/>
<vehicle id="hv.108" type="vehicle.chevrolet.impala" route="E2W" depart="110" departLane="random" departSpeed="desired" departPos="0" arrivalPos="max"/>
<vehicle id="hv.109" type="vehicle.chevrolet.impala" route="W2E" depart="111" departLane="random" departSpeed="desired" departPos="0" arrivalPos="max"/>
<vehicle id="hv.110" type="vehicle.chevrolet.impala" route="W2E" depart="112" departLane="random" departSpeed="desired" departPos="0" arrivalPos="max"/>
<vehicle id="hv.111" type="vehicle.chevrolet.impala" route="E2N" depart="112" departLane="random" departSpeed="desired" departPos="0" arrivalPos="max"/>
<vehicle id="hv.112" type="vehicle.chevrolet.impala" route="N2E" depart="112" departLane="random" departSpeed="desired" departPos="0" arrivalPos="max"/>
<vehicle id="hv.113" type="vehicle.chevrolet.impala" route="W2N" depart="113" departLane="random" departSpeed="desired" departPos="0" arrivalPos="max"/>
<vehicle id="cav.114" type="vehicle.lincoln.mkz_2017" route="W2E" depart="114" departLane="random" departSpeed="desired" departPos="0" arrivalPos="max"/>
<vehicle id="hv.115" type="vehicle.chevrolet.impala" route="W2E" depart="116" departLane="random" departSpeed="desired" departPos="0" arrivalPos="max"/>
<vehicle id="hv.116" type="vehicle.chevrolet.impala" route="N2E" depart="116" departLane="random" departSpeed="desired" departPos="0" arrivalPos="max"/>
<vehicle id="hv.117" type="vehicle.chevrolet.impala" route="E2W" depart="117" departLane="random" departSpeed="desired" departPos="0" arrivalPos="max"/>
<vehicle id="hv.118" type="vehicle.chevrolet.impala" route="E2W" depart="118" departLane="random" departSpeed="desired" departPos="0" arrivalPos="max"/>
<vehicle id="hv.119" type="vehicle.chevrolet.impala" route="E2W" depart="119" departLane="random" departSpeed="desired" departPos="0" arrivalPos="max"/>
<vehicle id="hv.120" type="vehicle.chevrolet.impala" route="W2E" depart="120" departLane="random" departSpeed="desired" departPos="0" arrivalPos="max"/>
<vehicle id="hv.121" type="vehicle.chevrolet.impala" route="S2W" depart="120" departLane="random" departSpeed="desired" departPos="0" arrivalPos="max"/>
<vehicle id="hv.122" type="vehicle.chevrolet.impala" route="E2W" depart="120" departLane="random" departSpeed="desired" departPos="0" arrivalPos="max"/>
<vehicle id="hv.123" type="vehicle.chevrolet.impala" route="E2N" depart="120" departLane="random" departSpeed="desired" departPos="0" arrivalPos="max"/>
<vehicle id="hv.124" type="vehicle.chevrolet.impala" route="W2E" depart="121" departLane="random" departSpeed="desired" departPos="0" arrivalPos="max"/>
<vehicle id="hv.125" type="vehicle.chevrolet.impala" route="E2W" depart="121" departLane="random" departSpeed="desired" departPos="0" arrivalPos="max"/>
<vehicle id="hv.126" type="vehicle.chevrolet.impala" route="E2N" depart="121" departLane="random" departSpeed="desired" departPos="0" arrivalPos="max"/>
<vehicle id="hv.127" type="vehicle.chevrolet.impala" route="W2E" depart="122" departLane="random" departSpeed="desired" departPos="0" arrivalPos="max"/>
<vehicle id="hv.128" type="vehicle.chevrolet.impala" route="S2E" depart="122" departLane="random" departSpeed="desired" departPos="0" arrivalPos="max"/>
<vehicle id="hv.129" type="vehicle.chevrolet.impala" route="E2N" depart="122" departLane="random" departSpeed="desired" departPos="0" arrivalPos="max"/>
<vehicle id="hv.130" type="vehicle.chevrolet.impala" route="S2N" depart="124" departLane="random" departSpeed="desired" departPos="0" arrivalPos="max"/>
<vehicle id="hv.131" type="vehicle.chevrolet.impala" route="W2E" depart="125" departLane="random" departSpeed="desired" departPos="0" arrivalPos="max"/>
<vehicle id="hv.132" type="vehicle.chevrolet.impala" route="W2E" depart="126" departLane="random" departSpeed="desired" departPos="0" arrivalPos="max"/>
<vehicle id="hv.133" type="vehicle.chevrolet.impala" route="W2N" depart="126" departLane="random" departSpeed="desired" departPos="0" arrivalPos="max"/>
<vehicle id="hv.134" type="vehicle.chevrolet.impala" route="E2N" depart="127" departLane="random" departSpeed="desired" departPos="0" arrivalPos="max"/>
<vehicle id="hv.135" type="vehicle.chevrolet.impala" route="N2W" depart="127" departLane="random" departSpeed="desired" departPos="0" arrivalPos="max"/>
<vehicle id="hv.136" type="vehicle.chevrolet.impala" route="W2E" depart="129" departLane="random" departSpeed="desired" departPos="0" arrivalPos="max"/>
<vehicle id="hv.137" type="vehicle.chevrolet.impala" route="N2E" depart="129" departLane="random" departSpeed="desired" departPos="0" arrivalPos="max"/>
<vehicle id="hv.138" type="vehicle.chevrolet.impala" route="W2E" depart="130" departLane="random" departSpeed="desired" departPos="0" arrivalPos="max"/>
<vehicle id="hv.139" type="vehicle.chevrolet.impala" route="E2W" depart="130" departLane="random" departSpeed="desired" departPos="0" arrivalPos="max"/>
<vehicle id="hv.140" type="vehicle.chevrolet.impala" route="W2E" depart="131" departLane="random" departSpeed="desired" departPos="0" arrivalPos="max"/>
<vehicle id="hv.141" type="vehicle.chevrolet.impala" route="W2E" depart="133" departLane="random" departSpeed="desired" departPos="0" arrivalPos="max"/>
<vehicle id="hv.142" type="vehicle.chevrolet.impala" route="W2E" depart="135" departLane="random" departSpeed="desired" departPos="0" arrivalPos="max"/>
<vehicle id="hv.143" type="vehicle.chevrolet.impala" route="S2N" depart="135" departLane="random" departSpeed="desired" departPos="0" arrivalPos="max"/>
<vehicle id="hv.144" type="vehicle.chevrolet.impala" route="W2E" depart="136" departLane="random" departSpeed="desired" departPos="0" arrivalPos="max"/>
<vehicle id="hv.145" type="vehicle.chevrolet.impala" route="E2W" depart="138" departLane="random" departSpeed="desired" departPos="0" arrivalPos="max"/>
<vehicle id="hv.146" type="vehicle.chevrolet.impala" route="W2E" depart="139" departLane="random" departSpeed="desired" departPos="0" arrivalPos="max"/>
<vehicle id="cav.147" type="vehicle.lincoln.mkz_2017" route="W2E" depart="142" departLane="random" departSpeed="desired" departPos="0" arrivalPos="max"/>
<vehicle id="hv.148" type="vehicle.chevrolet.impala" route="N2E" depart="142" departLane="random" departSpeed="desired" departPos="0" arrivalPos="max"/>
<vehicle id="cav.149" type="vehicle.lincoln.mkz_2017" route="N2E" depart="144" departLane="random" departSpeed="desired" departPos="0" arrivalPos="max"/>
<vehicle id="hv.150" type="vehicle.chevrolet.impala" route="S2N" depart="145" departLane="random" departSpeed="desired" departPos="0" arrivalPos="max"/>
<vehicle id="hv.151" type="vehicle.chevrolet.impala" route="W2E" depart="146" departLane="random" departSpeed="desired" departPos="0" arrivalPos="max"/>
<vehicle id="hv.152" type="vehicle.chevrolet.impala" route="S2N" depart="149" departLane="random" departSpeed="desired" departPos="0" arrivalPos="max"/>
<vehicle id="hv.153" type="vehicle.chevrolet.impala" route="S2N" depart="151" departLane="random" departSpeed="desired" departPos="0" arrivalPos="max"/>
<vehicle id="hv.154" type="vehicle.chevrolet.impala" route="W2E" depart="154" departLane="random" departSpeed="desired" departPos="0" arrivalPos="max"/>
<vehicle id="hv.155" type="vehicle.chevrolet.impala" route="W2N" depart="155" departLane="random" departSpeed="desired" departPos="0" arrivalPos="max"/>
<vehicle id="hv.156" type="vehicle.chevrolet.impala" route="S2E" depart="155" departLane="random" departSpeed="desired" departPos="0" arrivalPos="max"/>
<vehicle id="hv.157" type="vehicle.chevrolet.impala" route="E2W" depart="155" departLane="random" departSpeed="desired" departPos="0" arrivalPos="max"/>
<vehicle id="hv.158" type="vehicle.chevrolet.impala" route="E2W" depart="158" departLane="random" departSpeed="desired" departPos="0" arrivalPos="max"/>
<vehicle id="hv.159" type="vehicle.chevrolet.impala" route="S2E" depart="159" departLane="random" departSpeed="desired" departPos="0" arrivalPos="max"/>
<vehicle id="hv.160" type="vehicle.chevrolet.impala" route="E2W" depart="159" departLane="random" departSpeed="desired" departPos="0" arrivalPos="max"/>
<vehicle id="hv.161" type="vehicle.chevrolet.impala" route="N2E" depart="159" departLane="random" departSpeed="desired" departPos="0" arrivalPos="max"/>
<vehicle id="cav.162" type="vehicle.lincoln.mkz_2017" route="W2E" depart="162" departLane="random" departSpeed="desired" departPos="0" arrivalPos="max"/>
<vehicle id="hv.163" type="vehicle.chevrolet.impala" route="W2E" depart="163" departLane="random" departSpeed="desired" departPos="0" arrivalPos="max"/>
<vehicle id="hv.164" type="vehicle.chevrolet.impala" route="S2E" depart="164" departLane="random" departSpeed="desired" departPos="0" arrivalPos="max"/>
<vehicle id="hv.165" type="vehicle.chevrolet.impala" route="W2E" depart="165" departLane="random" departSpeed="desired" departPos="0" arrivalPos="max"/>
<vehicle id="hv.166" type="vehicle.chevrolet.impala" route="E2W" depart="165" departLane="random" departSpeed="desired" departPos="0" arrivalPos="max"/>
<vehicle id="hv.167" type="vehicle.chevrolet.impala" route="N2W" depart="165" departLane="random" departSpeed="desired" departPos="0" arrivalPos="max"/>
<vehicle id="hv.168" type="vehicle.chevrolet.impala" route="W2E" depart="167" departLane="random" departSpeed="desired" departPos="0" arrivalPos="max"/>
<vehicle id="hv.169" type="vehicle.chevrolet.impala" route="S2E" depart="168" departLane="random" departSpeed="desired" departPos="0" arrivalPos="max"/>
<vehicle id="hv.170" type="vehicle.chevrolet.impala" route="W2E" depart="171" departLane="random" departSpeed="desired" departPos="0" arrivalPos="max"/>
<vehicle id="hv.171" type="vehicle.chevrolet.impala" route="W2E" depart="172" departLane="random" departSpeed="desired" departPos="0" arrivalPos="max"/>
<vehicle id="hv.172" type="vehicle.chevrolet.impala" route="S2W" depart="172" departLane="random" departSpeed="desired" departPos="0" arrivalPos="max"/>
<vehicle id="hv.173" type="vehicle.chevrolet.impala" route="W2N" depart="173" departLane="random" departSpeed="desired" departPos="0" arrivalPos="max"/>
<vehicle id="hv.174" type="vehicle.chevrolet.impala" route="E2S" depart="175" departLane="random" departSpeed="desired" departPos="0" arrivalPos="max"/>
<vehicle id="hv.175" type="vehicle.chevrolet.impala" route="W2E" depart="176" departLane="random" departSpeed="desired" departPos="0" arrivalPos="max"/>
<vehicle id="hv.176" type="vehicle.chevrolet.impala" route="W2E" depart="178" departLane="random" departSpeed="desired" departPos="0" arrivalPos="max"/>
<vehicle id="hv.177" type="vehicle.chevrolet.impala" route="W2E" depart="179" departLane="random" departSpeed="desired" departPos="0" arrivalPos="max"/>
<vehicle id="hv.178" type="vehicle.chevrolet.impala" route="N2S" depart="179" departLane="random" departSpeed="desired" departPos="0" arrivalPos="max"/>
<vehicle id="hv.179" type="vehicle.chevrolet.impala" route="N2E" depart="179" departLane="random" departSpeed="desired" departPos="0" arrivalPos="max"/>
<vehicle id="cav.180" type="vehicle.lincoln.mkz_2017" route="N2E" depart="182" departLane="random" departSpeed="desired" departPos="0" arrivalPos="max"/>
<vehicle id="hv.181" type="vehicle.chevrolet.impala" route="S2E" depart="184" departLane="random" departSpeed="desired" departPos="0" arrivalPos="max"/>
<vehicle id="hv.182" type="vehicle.chevrolet.impala" route="E2N" depart="185" departLane="random" departSpeed="desired" departPos="0" arrivalPos="max"/>
<vehicle id="hv.183" type="vehicle.chevrolet.impala" route="E2N" depart="186" departLane="random" departSpeed="desired" departPos="0" arrivalPos="max"/>